            TRNSYS - the TRaNsient SYstem Simulation program

   The Solar Energy Lab at the University of Wisconsin - Madison, USA
Le Centre Scientifique et Technique du Batiment, Sophia Antipolis, France
           Transsolar Energietechnik GmBH, Stuttgart, Germany
        Thermal Energy System Specialists, LLC, Madison Wisconsin, USA

                           Release 17.01.0028

Listing file for: "C:\Users\s192476\Downloads\47330SDHCal\47330SDHCal\47330-MarstalSunstore4.trd"
 
*** Notice at time        :         0.000000
    Generated by Unit     : Not applicable or not available
    Generated by Type     : Not applicable or not available
    TRNSYS Message    197 : TRNSYS has been called within a TRNSED application.
    Reported information  : The TRNSYS Executable (TRNExe.exe) and main DLL (TRNDll.dll) are located in "C:\USERS\S192476\DOWNLOADS\47330SDHCAL\47330SDHCAL"
 

 *** Pre-Processing the TRNSYS EQUATIONs and CONSTANTs to check for fatal errors.

 *** Pre-Processing of EQUATIONs and CONSTANTs completed with no fatal errors found.

 *** Evaluating the EQUATIONs and CONSTANTs to determine their initial values.

 *** Finished evaluating the EQUATIONs and CONSTANTs and ready to begin processing the remainder of the TRNSYS input file.

  VERSION        17
*TRNSED                                                                                                                                                                                                                                                                                                                                                                                                                                                                                                                                                                                                                                                                                                                                                                                                                                                                                                                                                                                                                                 
*******************************************************************************                                                                                                                                                                                                                                                                                                                                                                                                                                                                                                                                                                                                                                                                                                                                                                                                                                                                                                                                                         
*** TRNSYS input file (deck) generated by TrnsysStudio                                                                                                                                                                                                                                                                                                                                                                                                                                                                                                                                                                                                                                                                                                                                                                                                                                                                                                                                                                                  
*** on tirsdag, april 25, 2017 at 16:12                                                                                                                                                                                                                                                                                                                                                                                                                                                                                                                                                                                                                                                                                                                                                                                                                                                                                                                                                                                                 
*** from TrnsysStudio project: C:\Trnsys17\MyProjects\Marstal11117\Sunstore4_v1-5-01_course11117.TPF                                                                                                                                                                                                                                                                                                                                                                                                                                                                                                                                                                                                                                                                                                                                                                                                                                                                                                                                    
***                                                                                                                                                                                                                                                                                                                                                                                                                                                                                                                                                                                                                                                                                                                                                                                                                                                                                                                                                                                                                                     
*** If you edit this file, use the File/Import TRNSYS Input File function in                                                                                                                                                                                                                                                                                                                                                                                                                                                                                                                                                                                                                                                                                                                                                                                                                                                                                                                                                            
*** TrnsysStudio to update the project.                                                                                                                                                                                                                                                                                                                                                                                                                                                                                                                                                                                                                                                                                                                                                                                                                                                                                                                                                                                                 
***                                                                                                                                                                                                                                                                                                                                                                                                                                                                                                                                                                                                                                                                                                                                                                                                                                                                                                                                                                                                                                     
*** If you have problems, questions or suggestions please contact your local                                                                                                                                                                                                                                                                                                                                                                                                                                                                                                                                                                                                                                                                                                                                                                                                                                                                                                                                                            
*** TRNSYS distributor or mailto:software@cstb.fr                                                                                                                                                                                                                                                                                                                                                                                                                                                                                                                                                                                                                                                                                                                                                                                                                                                                                                                                                                                       
***                                                                                                                                                                                                                                                                                                                                                                                                                                                                                                                                                                                                                                                                                                                                                                                                                                                                                                                                                                                                                                     
*******************************************************************************                                                                                                                                                                                                                                                                                                                                                                                                                                                                                                                                                                                                                                                                                                                                                                                                                                                                                                                                                         
*******************************************************************************                                                                                                                                                                                                                                                                                                                                                                                                                                                                                                                                                                                                                                                                                                                                                                                                                                                                                                                                                         
*|<BACKGROUND> rgb(239,236,255)                                                                                                                                                                                                                                                                                                                                                                                                                                                                                                                                                                                                                                                                                                                                                                                                                                                                                                                                                                                                         
*|<img src="Images\SUNSTORE4-scheme.jpg" align="center">                                                                                                                                                                                                                                                                                                                                                                                                                                                                                                                                                                                                                                                                                                                                                                                                                                                                                                                                                                                
*|<COLOR1> rgb(204,0,0)                                                                                                                                                                                                                                                                                                                                                                                                                                                                                                                                                                                                                                                                                                                                                                                                                                                                                                                                                                                                                 
*|<SIZE1> 20                                                                                                                                                                                                                                                                                                                                                                                                                                                                                                                                                                                                                                                                                                                                                                                                                                                                                                                                                                                                                            
*|<ALIGN1> CENTER                                                                                                                                                                                                                                                                                                                                                                                                                                                                                                                                                                                                                                                                                                                                                                                                                                                                                                                                                                                                                       
*|<STYLE1> ITALIC BOLD                                                                                                                                                                                                                                                                                                                                                                                                                                                                                                                                                                                                                                                                                                                                                                                                                                                                                                                                                                                                                  
*|[HEADER|                                                                                                                                                                                                                                                                                                                                                                                                                                                                                                                                                                                                                                                                                                                                                                                                                                                                                                                                                                                                                              
*|* A CALCULATION PROGRAM OF A SOLAR HEATING PLANT                                                                                                                                                                                                                                                                                                                                                                                                                                                                                                                                                                                                                                                                                                                                                                                                                                                                                                                                                                                      
*|<SIZE1> 12                                                                                                                                                                                                                                                                                                                                                                                                                                                                                                                                                                                                                                                                                                                                                                                                                                                                                                                                                                                                                            
*|*  (Jianhua Fan, DTU)                                                                                                                                                                                                                                                                                                                                                                                                                                                                                                                                                                                                                                                                                                                                                                                                                                                                                                                                                                                                                 
*|<SIZE1> 10                                                                                                                                                                                                                                                                                                                                                                                                                                                                                                                                                                                                                                                                                                                                                                                                                                                                                                                                                                                                                            
*                                                                                                                                                                                                                                                                                                                                                                                                                                                                                                                                                                                                                                                                                                                                                                                                                                                                                                                                                                                                                                       
*                                                                                                                                                                                                                                                                                                                                                                                                                                                                                                                                                                                                                                                                                                                                                                                                                                                                                                                                                                                                                                       
*                                                                                                                                                                                                                                                                                                                                                                                                                                                                                                                                                                                                                                                                                                                                                                                                                                                                                                                                                                                                                                       
*                                                                                                                                                                                                                                                                                                                                                                                                                                                                                                                                                                                                                                                                                                                                                                                                                                                                                                                                                                                                                                       
*                                                                                                                                                                                                                                                                                                                                                                                                                                                                                                                                                                                                                                                                                                                                                                                                                                                                                                                                                                                                                                       
*                                                                                                                                                                                                                                                                                                                                                                                                                                                                                                                                                                                                                                                                                                                                                                                                                                                                                                                                                                                                                                       
*                                                                                                                                                                                                                                                                                                                                                                                                                                                                                                                                                                                                                                                                                                                                                                                                                                                                                                                                                                                                                                       
*                                                                                                                                                                                                                                                                                                                                                                                                                                                                                                                                                                                                                                                                                                                                                                                                                                                                                                                                                                                                                                       
*                                                                                                                                                                                                                                                                                                                                                                                                                                                                                                                                                                                                                                                                                                                                                                                                                                                                                                                                                                                                                                       
*                                                                                                                                                                                                                                                                                                                                                                                                                                                                                                                                                                                                                                                                                                                                                                                                                                                                                                                                                                                                                                       
*                                                                                                                                                                                                                                                                                                                                                                                                                                                                                                                                                                                                                                                                                                                                                                                                                                                                                                                                                                                                                                       
*                                                                                                                                                                                                                                                                                                                                                                                                                                                                                                                                                                                                                                                                                                                                                                                                                                                                                                                                                                                                                                       
*                                                                                                                                                                                                                                                                                                                                                                                                                                                                                                                                                                                                                                                                                                                                                                                                                                                                                                                                                                                                                                       
*                                                                                                                                                                                                                                                                                                                                                                                                                                                                                                                                                                                                                                                                                                                                                                                                                                                                                                                                                                                                                                       
*                                                                                                                                                                                                                                                                                                                                                                                                                                                                                                                                                                                                                                                                                                                                                                                                                                                                                                                                                                                                                                       
*                                                                                                                                                                                                                                                                                                                                                                                                                                                                                                                                                                                                                                                                                                                                                                                                                                                                                                                                                                                                                                       
*                                                                                                                                                                                                                                                                                                                                                                                                                                                                                                                                                                                                                                                                                                                                                                                                                                                                                                                                                                                                                                       
*|*Last updated: 11.11.2019                                                                                                                                                                                                                                                                                                                                                                                                                                                                                                                                                                                                                                                                                                                                                                                                                                                                                                                                                                                                             
*                                                                                                                                                                                                                                                                                                                                                                                                                                                                                                                                                                                                                                                                                                                                                                                                                                                                                                                                                                                                                                       
*|<STYLE1> NORMAL                                                                                                                                                                                                                                                                                                                                                                                                                                                                                                                                                                                                                                                                                                                                                                                                                                                                                                                                                                                                                       
*|<COLOR1> NAVY                                                                                                                                                                                                                                                                                                                                                                                                                                                                                                                                                                                                                                                                                                                                                                                                                                                                                                                                                                                                                         
*|<SIZE1> 10                                                                                                                                                                                                                                                                                                                                                                                                                                                                                                                                                                                                                                                                                                                                                                                                                                                                                                                                                                                                                            
*|* This is a Trnsys simulation program of a typical solar heating plant.                                                                                                                                                                                                                                                                                                                                                                                                                                                                                                                                                                                                                                                                                                                                                                                                                                                                                                                                                               
*|*   The program should only be used for course 47330 at DTU.                                                                                                                                                                                                                                                                                                                                                                                                                                                                                                                                                                                                                                                                                                                                                                                                                                                                                                                                                                          
*|]                                                                                                                                                                                                                                                                                                                                                                                                                                                                                                                                                                                                                                                                                                                                                                                                                                                                                                                                                                                                                                     
*|<COLOR1> rgb(204,0,0)                                                                                                                                                                                                                                                                                                                                                                                                                                                                                                                                                                                                                                                                                                                                                                                                                                                                                                                                                                                                                 
*|<ALIGN1> LEFT                                                                                                                                                                                                                                                                                                                                                                                                                                                                                                                                                                                                                                                                                                                                                                                                                                                                                                                                                                                                                         
*|<STYLE1> BOLD                                                                                                                                                                                                                                                                                                                                                                                                                                                                                                                                                                                                                                                                                                                                                                                                                                                                                                                                                                                                                         
*|<SIZE1> 12                                                                                                                                                                                                                                                                                                                                                                                                                                                                                                                                                                                                                                                                                                                                                                                                                                                                                                                                                                                                                            
*|*                                                                                                                                                                                                                                                                                                                                                                                                                                                                                                                                                                                                                                                                                                                                                                                                                                                                                                                                                                                                                                     
*                                                                                                                                                                                                                                                                                                                                                                                                                                                                                                                                                                                                                                                                                                                                                                                                                                                                                                                                                                                                                                       
*                                                                                                                                                                                                                                                                                                                                                                                                                                                                                                                                                                                                                                                                                                                                                                                                                                                                                                                                                                                                                                       
*******************************************************************************                                                                                                                                                                                                                                                                                                                                                                                                                                                                                                                                                                                                                                                                                                                                                                                                                                                                                                                                                         
*|[ NRcon | The district heating net                                                                                                                                                                                                                                                                                                                                                                                                                                                                                                                                                                                                                                                                                                                                                                                                                                                                                                                                                                                                    

  CONSTANTS   4
       Demand_net= 6.0820000000000E+04
*|Demand of the district heating net      |MWh|-|0|1|1000|6400000.0|997                                                                                                                                                                                                                                                                                                                                                                                                                                                                                                                                                                                                                                                                                                                                                                                                                                                                                                                                                                 
       Deghours_sum= 7.7560000000000E+04
*|Sum of degree*hour per year      |-|-|0|1|30000|150000|997                                                                                                                                                                                                                                                                                                                                                                                                                                                                                                                                                                                                                                                                                                                                                                                                                                                                                                                                                                            
       T_net_forward= 7.0000000000000E+01
*|Forward temperature to the net      |C|-|0|1|50|100|997                                                                                                                                                                                                                                                                                                                                                                                                                                                                                                                                                                                                                                                                                                                                                                                                                                                                                                                                                                               
       T_net_return= 4.0000000000000E+01
*|Return temperature from the net     |C|-|0|1|20|80|997                                                                                                                                                                                                                                                                                                                                                                                                                                                                                                                                                                                                                                                                                                                                                                                                                                                                                                                                                                                
*|]                                                                                                                                                                                                                                                                                                                                                                                                                                                                                                                                                                                                                                                                                                                                                                                                                                                                                                                                                                                                                                     
*                                                                                                                                                                                                                                                                                                                                                                                                                                                                                                                                                                                                                                                                                                                                                                                                                                                                                                                                                                                                                                       
*******************************************************************************                                                                                                                                                                                                                                                                                                                                                                                                                                                                                                                                                                                                                                                                                                                                                                                                                                                                                                                                                         
*                                                                                                                                                                                                                                                                                                                                                                                                                                                                                                                                                                                                                                                                                                                                                                                                                                                                                                                                                                                                                                       
*|[ NRcon | Solar collector                                                                                                                                                                                                                                                                                                                                                                                                                                                                                                                                                                                                                                                                                                                                                                                                                                                                                                                                                                                                             

  CONSTANTS  14
       coll1_area = 9.0430000000000E+03
*|Collector field 1: Area      |m^2|-|0|1|1000|1000000.0|997                                                                                                                                                                                                                                                                                                                                                                                                                                                                                                                                                                                                                                                                                                                                                                                                                                                                                                                                                                            
       coll1_eta0 = 7.6000000000000E-01
*|Collector field 1: n0      |-|-|0|1|0.0001|1.00|997                                                                                                                                                                                                                                                                                                                                                                                                                                                                                                                                                                                                                                                                                                                                                                                                                                                                                                                                                                                   
       coll1_a1 = 1.2600000000000E+01
*|Collector field 1: a_1 (1 W/m^2.K=3.6 kJ/hr.m^2.K)  |kJ/hr.m^2.K|-|0|1|0.1|50.00|997                                                                                                                                                                                                                                                                                                                                                                                                                                                                                                                                                                                                                                                                                                                                                                                                                                                                                                                                                  
       coll1_a2 = 7.0000000000000E-03
*|Collector field 1: a_2 (1 W/m^2.K^2=3.6 kJ/hr.m^2.K^2)    |kJ/hr.m^2.K^2|-|0|1|0.0|50.000|997                                                                                                                                                                                                                                                                                                                                                                                                                                                                                                                                                                                                                                                                                                                                                                                                                                                                                                                                         
       coll2_area = 9.1240000000000E+03
*|Collector field 2: Area      |m^2|-|0|1|1000|1000000.0|997                                                                                                                                                                                                                                                                                                                                                                                                                                                                                                                                                                                                                                                                                                                                                                                                                                                                                                                                                                            
       coll2_eta0 = 8.1000000000000E-01
*|Collector field 2: n0      |-|-|0|1|0.0001|1.00|997                                                                                                                                                                                                                                                                                                                                                                                                                                                                                                                                                                                                                                                                                                                                                                                                                                                                                                                                                                                   
       coll2_a1 = 9.2500000000000E+00
*|Collector field 2: a_1 (1 W/m^2.K=3.6 kJ/hr.m^2.K)  |kJ/hr.m^2.K|-|0|1|0.1|50.00|997                                                                                                                                                                                                                                                                                                                                                                                                                                                                                                                                                                                                                                                                                                                                                                                                                                                                                                                                                  
       coll2_a2 = 2.8000000000000E-02
*|Collector field 2: a_2 (1 W/m^2.K^2=3.6 kJ/hr.m^2.K^2)    |kJ/hr.m^2.K^2|-|0|1|0.0|50.000|997                                                                                                                                                                                                                                                                                                                                                                                                                                                                                                                                                                                                                                                                                                                                                                                                                                                                                                                                         
       coll3_area = 1.5000000000000E+04
*|Collector field 3: Area      |m^2|-|0|1|1000|1000000.0|997                                                                                                                                                                                                                                                                                                                                                                                                                                                                                                                                                                                                                                                                                                                                                                                                                                                                                                                                                                            
       coll3_eta0 = 8.5000000000000E-01
[...]
! 2.100 m3:power through doubleport-5 ->Right axis variable-5                                                                                                                                                                                                                                                                                                                                                                                                                                                                                                                                                                                                                                                                                                                                                                                                                                                                                                                                                                   
! 2.100 m3:power through heat exchanger-1 ->Right axis variable-6                                                                                                                                                                                                                                                                                                                                                                                                                                                                                                                                                                                                                                                                                                                                                                                                                                                                                                                                                               
! 2.100 m3:power through heat exchanger-2 ->Right axis variable-7                                                                                                                                                                                                                                                                                                                                                                                                                                                                                                                                                                                                                                                                                                                                                                                                                                                                                                                                                               
! 2.100 m3:heat loss rate of the whole storage to ambient ->Right axis variable-8                                                                                                                                                                                                                                                                                                                                                                                                                                                                                                                                                                                                                                                                                                                                                                                                                                                                                                                                               
! 2.100 m3:heat loss rate of the storage-bottom to ambeint ->Right axis variable-9                                                                                                                                                                                                                                                                                                                                                                                                                                                                                                                                                                                                                                                                                                                                                                                                                                                                                                                                              
! 2.100 m3:heat loss rate of the storage-top to ambient ->Right axis variable-10                                                                                                                                                                                                                                                                                                                                                                                                                                                                                                                                                                                                                                                                                                                                                                                                                                                                                                                                                
       72,33                     72,52                     72,29                     72,24                     72,25               
       72,26                     72,27                     72,28                     72,36                     72,41               
       72,17                     72,18                     72,19               
*** INITIAL INPUT VALUES                                                                                                                                                                                                                                                                                                                                                                                                                                                                                                                                                                                                                                                                                                                                                                                                                                                                                                                                                                                                                
       Max_T                                    Mean_T                                   Min_T                                    Power                _Port_1                             Power_Port_2                             
       Power_Port_3                             Power_Port_4                             Power_Port                _5             Power                _hx_1                               Power_hx_2                               
       Heatloss_whole                           Heatloss_bot                             Heatloss_t                op             
*                                                                                                                                                                                                                                                                                                                                                                                                                                                                                                                                                                                                                                                                                                                                                                                                                                                                                                                                                                                                                                       
       LABELS    3
       Temperatures C                                                                                                                                                                                                                                                                                              
       Heat transfer rates kJ/hr                                                                                                                                                                                                                                                                                   
       Tank heat storage                                                                                                                                                                                                                                                                                           
*------------------------------------------------------------------------------                                                                                                                                                                                                                                                                                                                                                                                                                                                                                                                                                                                                                                                                                                                                                                                                                                                                                                                                                         
*                                                                                                                                                                                                                                                                                                                                                                                                                                                                                                                                                                                                                                                                                                                                                                                                                                                                                                                                                                                                                                       

  END


         TRANSIENT SIMULATION     STARTING AT TIME =  0.0000000000000000E+00
                                  STOPPING AT TIME =  1.7520000000000000E+04
                                          TIMESTEP =         1 /        1
             DIFFERENTIAL EQUATION ERROR TOLERANCE =  1.0000000000000002E-02
                   ALGEBRAIC CONVERGENCE TOLERANCE =  1.0000000000000002E-02

     DIFFERENTIAL EQUATIONS SOLVED BY MODIFIED EULER   
 
*** Notice at time        :         0.000000
    Generated by Unit     : Not applicable or not available
    Generated by Type     : Not applicable or not available
    TRNSYS Message     90 : TRNDll.dll is compiled in release mode. External DLLs will be loaded from the .\UserLib\ReleaseDLLs\ directory.
    Reported information  : Not available
 
 
*** Notice at time        :         0.000000
    Generated by Unit     : Not applicable or not available
    Generated by Type     : Not applicable or not available
    Message               : The following Types were loaded from TRNDll.dll: Type1, Type109, Type9, Type11, Type24, Type25, Type6, Type65, Type93, Type14
 
 
*** Notice at time        :         0.000000
    Generated by Unit     : Not applicable or not available
    Generated by Type     : Not applicable or not available
    Message               : The following Types were loaded from "TESSHydronics_v17.1.01_Release.dll": Type649
 
 
*** Notice at time        :         0.000000
    Generated by Unit     : Not applicable or not available
    Generated by Type     : Not applicable or not available
    Message               : The following Types were loaded from "Type340.dll": Type340
 
 
*** Notice at time        :         0.000000
    Generated by Unit     : Not applicable or not available
    Generated by Type     : Not applicable or not available
    Message               : The following Types were loaded from "Type342.dll": Type342
 
 
*** Notice at time        :         0.000000
    Generated by Unit     : Not applicable or not available
    Generated by Type     : Not applicable or not available
    TRNSYS Message    199 : TRNSYS found at least one user DLL in the UserLib directory. (Note: Only DLL's including Types that are used in the simulation are loaded)
    Reported information  : 3 user DLLs were loaded after searching in "C:\USERS\S192476\DOWNLOADS\47330SDHCAL\47330SDHCAL\UserLib\ReleaseDLLs"
 

*** The TRNSYS components will be called in the following order:
      Unit #   33   Type #    9
      Unit #   73   Type #   14
      Unit #   71   Type #   14
      Unit #   88   Type #    9
      Unit #   31   Type #  109
      Unit #  103   Type #   93
      Unit #    3   Type #    1
      Unit #   47   Type #    1
      Unit #   54   Type #    1
      Unit #   52   Type #  342
      Unit #   58   Type #    6
      Unit #   72   Type #  340
      Unit #   39   Type #   11
      Unit #   80   Type #   93
      Unit #   96   Type #   11
      Unit #   63   Type #   11
      Unit #   75   Type #   11
      Unit #   37   Type #   11
      Unit #   64   Type #   93
      Unit #   87   Type #   11
      Unit #   70   Type #   11
      Unit #   76   Type #   11
      Unit #   79   Type #   11
      Unit #   90   Type #   11
      Unit #   97   Type #   11
      Unit #   83   Type #   11
      Unit #   86   Type #  649
      Unit #  100   Type #   11
      Unit #   89   Type #   11
      Unit #  101   Type #   11
      Unit #   40   Type #   24
      Unit #   81   Type #   65
      Unit #   44   Type #   25
      Unit #   61   Type #   25
      Unit #   98   Type #   65
      Unit #   91   Type #   65
      Unit #   62   Type #   65
      Unit #   65   Type #   25
      Unit #   92   Type #   65
 
*** Notice at time        :      8760.000000
    Generated by Unit     :    33
    Generated by Type     :     9
    Message               : The specified component model has exhausted the data supply and has rewound the data file to begin reading from the top of the data file.
 
 
*** Notice at time        :      8760.000000
    Generated by Unit     :    88
    Generated by Type     :     9
    Message               : The specified component model has exhausted the data supply and has rewound the data file to begin reading from the top of the data file.
 
==========================================================================================
TYPE109 TIME REPORT: (for debugging purpose)
------------------------------------------------------------------------------------------
time_report_unit:   6
time_filter:       .1752E+08 [ms]
==========================================================================================
Level0      Level1      Level2      Level3      Level4        Counter DTime[ms]  TTime[ms]
==========================================================================================
 zwischenzeit           1 :   0.000000000000000E+000
 zwischenzeit           2 :   0.000000000000000E+000
 zwischenzeit           3 :   0.000000000000000E+000
 zwischenzeit           4 :   0.000000000000000E+000
 zwischenzeit           5 :   0.000000000000000E+000
 zwischenzeit           6 :   0.000000000000000E+000
 zwischenzeit           7 :   0.000000000000000E+000
 zwischenzeit           8 :   0.000000000000000E+000
 zwischenzeit           9 :   0.000000000000000E+000
 zwischenzeit          10 :   0.000000000000000E+000
 itest :       87597
 Summe :   0.000000000000000E+000
 
*** Notice at time        :     17520.000000
    Generated by Unit     :    72
    Generated by Type     :   340
    Message               : V1.99 was used for emulation of version 1.95000000000000 (or lower)
 
 
*** Notice at time        :     17520.000000
    Generated by Unit     :    72
    Generated by Type     :   340
    Message               : Qerrsum of V1.99E: 1284.79347715291 [kJ]
 


*********************************************************************************************************
The Following UNIT Numbers, TYPE Numbers, and Logical Units Were Used in the Supplied TRNSYS Input File: 
                         3             1                 4
                        31             6                 6
                        33             9                 9
                        37            11                32
                        39            14                33
                        40            24                34
                        44            25                37
                        47            65                38
                        52            93                39
                        54           109                50
                        58           340
                        61           342
                        62           649
                        63
                        64
                        65
                        70
                        71
                        72
                        73
                        75
                        76
                        79
                        80
                        81
                        83
                        86
                        87
                        88
                        89
                        90
                        91
                        92
                        96
                        97
                        98
                       100
                       101
                       103


*********************************************************************************************************
Total TRNSYS Calculation Time:                         15.2900 Seconds
